src/test/resources/ieeefiles/case4.txt
 07/12/10                      100.0  0    0                             
BUS DATA FOLLOWS                    4 ITEMS
   1 Node1        1   1  3 1.1150  0.000   0.0000  0.00000  20.8600  35.790  100.00 1.0000 0.00000 0.00000  0.0000  0.0000 0
   2 Node2        1   1  1 1.1035  -0.40   200.00  90.0000  0.00000  0.0000  100.00 1.0000 0.00000 0.00000  0.0000  0.0000 0
   3 Node3        1   1  1 1.1171  0.810   50.000  40.0000  0.00000  0.0000  100.00 1.0000 0.00000 0.00000  0.0000  0.0000 0
   4 Node4        1   1  2 1.1223  8.020   0.0000  0.00000  200.000  100.00  100.00 1.0000 0.00000 0.00000  0.0000  0.0000 0   
-999
BRANCH DATA FOLLOWS                     4 ITEMS
   1    2 1 1   1 0  0.005200  0.026600   0.02800  0     0     0    0    0  0.0000  0.00   0.0000 0.00000 0.0000 0.0000 0.00000
   1    3 1 1   1 0  0.030500  0.083700   .112000  0     0     0    0    0  0.0000  0.00   0.0000 0.00000 0.0000 0.0000 0.00000
   2    3 1 1   1 0  0.004100  0.021500   0.08800  0     0     0    0    0  0.0000  0.00   0.0000 0.00000 0.0000 0.0000 0.00000
   3    4 1 1   1 1  0.000000  0.075000   0.00000  0     0     0    0    0  1.0500  0.00   0.0000 0.00000 0.0000 0.0000 0.00000
-999
LOSS ZONES FOLLOWS   0 ITEMS
-99
INTERCHANGE DATA FOLLOWS      0 ITEMS
-9
TIE LINES FOLLOWS             0ITEMS
-999
END OF DATA